<routes>
    <vType id="typeOrange" accel="0.8" decel="4.5" sigma="0.5" length="5" minGap="2.5" maxSpeed="25" guiShape="passenger" color="0.832,0.367,0">
    </vType>

    <vType id="typeYellow" accel="0.8" decel="4.5" sigma="0.5" length="5" minGap="2.5" maxSpeed="25" guiShape="passenger" color="0.9375,0.89,0.258">
    </vType>

    <vType id="typeBlue" accel="0.8" decel="4.5" sigma="0.5" length="5" minGap="2.5" maxSpeed="25" guiShape="passenger" color="0,0.445,0.695">
    </vType>

    <vType id="typePurple" accel="0.8" decel="4.5" sigma="0.5" length="5" minGap="2.5" maxSpeed="25" guiShape="passenger" color="0.797,0.473,0.652">
    </vType>

    <vType id="typeGreen" accel="0.8" decel="4.5" sigma="0.5" length="5" minGap="2.5" maxSpeed="25" guiShape="passenger" color="0,0.617,0.449">
    </vType>

    <route id="northEast"  edges="1:0 0:2" />
    <route id="northSouth" edges="1:0 0:3" />
    <route id="northWest"  edges="1:0 0:4" />
    <route id="eastNorth"  edges="2:0 0:1" />
    <route id="eastSouth"  edges="2:0 0:3" />
    <route id="eastWest"   edges="2:0 0:4" />
    <route id="southNorth" edges="3:0 0:1" />
    <route id="southEast"  edges="3:0 0:2" />
    <route id="southWest"  edges="3:0 0:4" />
    <route id="westNorth"  edges="4:0 0:1" />
    <route id="westEast"   edges="4:0 0:2" />
    <route id="westSouth"  edges="4:0 0:3" />
    
    <vehicle id="0" type="typeYellow" route="southEast" depart="3" />
    <vehicle id="1" type="typePurple" route="eastNorth" depart="5" />
    <vehicle id="2" type="typeGreen" route="southWest" depart="7" />
    <vehicle id="3" type="typeBlue" route="northEast" depart="8" />
    <vehicle id="4" type="typeOrange" route="westNorth" depart="9" />
    <vehicle id="5" type="typeBlue" route="eastNorth" depart="10" />
    <vehicle id="6" type="typeBlue" route="northWest" depart="12" />
    <vehicle id="7" type="typeGreen" route="southEast" depart="16" />
    <vehicle id="8" type="typeBlue" route="eastWest" depart="17" />
    <vehicle id="9" type="typePurple" route="eastWest" depart="18" />
    <vehicle id="10" type="typeOrange" route="eastWest" depart="24" />
    <vehicle id="11" type="typeGreen" route="eastSouth" depart="29" />
    <vehicle id="12" type="typeBlue" route="eastNorth" depart="31" />
    <vehicle id="13" type="typePurple" route="eastNorth" depart="32" />
    <vehicle id="14" type="typeBlue" route="southEast" depart="32" />
    <vehicle id="15" type="typeOrange" route="eastNorth" depart="38" />
    <vehicle id="16" type="typePurple" route="southEast" depart="38" />
    <vehicle id="17" type="typeYellow" route="southWest" depart="40" />
    <vehicle id="18" type="typeBlue" route="northSouth" depart="41" />
    <vehicle id="19" type="typeGreen" route="eastWest" depart="46" />
    <vehicle id="20" type="typeOrange" route="westNorth" depart="47" />
    <vehicle id="21" type="typeGreen" route="eastWest" depart="48" />
    <vehicle id="22" type="typePurple" route="eastWest" depart="49" />
    <vehicle id="23" type="typeBlue" route="westNorth" depart="53" />
    <vehicle id="24" type="typeOrange" route="southWest" depart="55" />
    <vehicle id="25" type="typeBlue" route="westNorth" depart="55" />
    <vehicle id="26" type="typeGreen" route="westNorth" depart="60" />
    <vehicle id="27" type="typePurple" route="southWest" depart="61" />
    <vehicle id="28" type="typeGreen" route="eastWest" depart="63" />
    <vehicle id="29" type="typeOrange" route="northEast" depart="67" />
    <vehicle id="30" type="typeBlue" route="southWest" depart="74" />
    <vehicle id="31" type="typePurple" route="northEast" depart="76" />
    <vehicle id="32" type="typeBlue" route="westNorth" depart="77" />
    <vehicle id="33" type="typeOrange" route="westNorth" depart="79" />
    <vehicle id="34" type="typeYellow" route="northWest" depart="82" />
    <vehicle id="35" type="typePurple" route="westEast" depart="82" />
    <vehicle id="36" type="typeGreen" route="southEast" depart="86" />
    <vehicle id="37" type="typeGreen" route="westNorth" depart="88" />
    <vehicle id="38" type="typePurple" route="eastWest" depart="89" />
    <vehicle id="39" type="typeBlue" route="southEast" depart="91" />
    <vehicle id="40" type="typePurple" route="northEast" depart="93" />
    <vehicle id="41" type="typePurple" route="southEast" depart="97" />
</routes>
