<routes>
    <vType id="typeOrange" accel="0.8" decel="4.5" sigma="0.5" length="5" minGap="2.5" maxSpeed="25" guiShape="passenger" color="0.832,0.367,0">
    </vType>

    <vType id="typeYellow" accel="0.8" decel="4.5" sigma="0.5" length="5" minGap="2.5" maxSpeed="25" guiShape="passenger" color="0.9375,0.89,0.258">
    </vType>

    <vType id="typeBlue" accel="0.8" decel="4.5" sigma="0.5" length="5" minGap="2.5" maxSpeed="25" guiShape="passenger" color="0,0.445,0.695">
    </vType>

    <vType id="typePurple" accel="0.8" decel="4.5" sigma="0.5" length="5" minGap="2.5" maxSpeed="25" guiShape="passenger" color="0.797,0.473,0.652">
    </vType>

    <vType id="typeGreen" accel="0.8" decel="4.5" sigma="0.5" length="5" minGap="2.5" maxSpeed="25" guiShape="passenger" color="0,0.617,0.449">
    </vType>

    <route id="northEast"  edges="1:0 0:2" />
    <route id="northSouth" edges="1:0 0:3" />
    <route id="northWest"  edges="1:0 0:4" />
    <route id="eastNorth"  edges="2:0 0:1" />
    <route id="eastSouth"  edges="2:0 0:3" />
    <route id="eastWest"   edges="2:0 0:4" />
    <route id="southNorth" edges="3:0 0:1" />
    <route id="southEast"  edges="3:0 0:2" />
    <route id="southWest"  edges="3:0 0:4" />
    <route id="westNorth"  edges="4:0 0:1" />
    <route id="westEast"   edges="4:0 0:2" />
    <route id="westSouth"  edges="4:0 0:3" />
    
    <vehicle id="0" type="typeGreen" route="northWest" depart="4" />
    <vehicle id="1" type="typeOrange" route="northSouth" depart="5" />
    <vehicle id="2" type="typeOrange" route="westEast" depart="7" />
    <vehicle id="3" type="typePurple" route="southEast" depart="14" />
    <vehicle id="4" type="typeGreen" route="westSouth" depart="16" />
    <vehicle id="5" type="typeOrange" route="northEast" depart="18" />
    <vehicle id="6" type="typeBlue" route="northSouth" depart="21" />
    <vehicle id="7" type="typePurple" route="westNorth" depart="21" />
    <vehicle id="8" type="typeYellow" route="eastNorth" depart="22" />
    <vehicle id="9" type="typeYellow" route="westEast" depart="23" />
    <vehicle id="10" type="typePurple" route="westSouth" depart="25" />
    <vehicle id="11" type="typeYellow" route="northWest" depart="27" />
    <vehicle id="12" type="typeGreen" route="westEast" depart="28" />
    <vehicle id="13" type="typeYellow" route="northWest" depart="30" />
    <vehicle id="14" type="typeOrange" route="southEast" depart="32" />
    <vehicle id="15" type="typeBlue" route="southEast" depart="33" />
    <vehicle id="16" type="typeBlue" route="westEast" depart="36" />
    <vehicle id="17" type="typePurple" route="westSouth" depart="39" />
    <vehicle id="18" type="typeOrange" route="westEast" depart="40" />
    <vehicle id="19" type="typeBlue" route="eastSouth" depart="41" />
    <vehicle id="20" type="typePurple" route="westEast" depart="49" />
    <vehicle id="21" type="typePurple" route="westNorth" depart="51" />
    <vehicle id="22" type="typePurple" route="eastWest" depart="58" />
    <vehicle id="23" type="typePurple" route="eastNorth" depart="60" />
    <vehicle id="24" type="typeBlue" route="northWest" depart="69" />
    <vehicle id="25" type="typeYellow" route="northWest" depart="70" />
    <vehicle id="26" type="typeBlue" route="westSouth" depart="70" />
    <vehicle id="27" type="typeGreen" route="westEast" depart="71" />
    <vehicle id="28" type="typeOrange" route="eastSouth" depart="72" />
    <vehicle id="29" type="typeOrange" route="westNorth" depart="74" />
    <vehicle id="30" type="typeBlue" route="eastNorth" depart="75" />
    <vehicle id="31" type="typeBlue" route="northWest" depart="77" />
    <vehicle id="32" type="typeBlue" route="southNorth" depart="84" />
    <vehicle id="33" type="typeYellow" route="westSouth" depart="84" />
    <vehicle id="34" type="typeYellow" route="eastSouth" depart="87" />
    <vehicle id="35" type="typePurple" route="westEast" depart="87" />
    <vehicle id="36" type="typeGreen" route="northWest" depart="89" />
    <vehicle id="37" type="typeBlue" route="westSouth" depart="97" />
    <vehicle id="38" type="typeBlue" route="eastWest" depart="99" />
</routes>
